/*---------------------------------------------------------------------------*\
  =========                 |
  \\      /  F ield         | OpenFOAM: The Open Source CFD Toolbox
   \\    /   O peration     | Website:  https://openfoam.org
    \\  /    A nd           | Version:  6
     \\/     M anipulation  |
\*---------------------------------------------------------------------------*/
Build  : 6-1a0c91b3baa8
Exec   : multicompCompressFluid -writep -writePhi
Date   : Nov 04 2018
Time   : 20:53:24
Host   : "ubuntu"
PID    : 11822
I/O    : uncollated
Case   : /media/psf/HDD/OpenFOAM/twoFuelEngine/quadPiston/case
nProcs : 1
sigFpe : Enabling floating point exception trapping (FOAM_SIGFPE).
fileModificationChecking : Monitoring run-time modified files using timeStampMaster (fileModificationSkew 10)
allowSystemOperations : Allowing user-supplied system call operations

// * * * * * * * * * * * * * * * * * * * * * * * * * * * * * * * * * * * * * //
Create time

Create mesh for time = 0

Reading velocity field U

Constructing pressure field p

Constructing velocity potential field Phi

No MRF models present


Calculating potential flow
GAMG:  Solving for Phi, Initial residual = 1, Final residual = 0.00391831, No Iterations 2
GAMG:  Solving for Phi, Initial residual = 0.00356156, Final residual = 2.47518e-05, No Iterations 6
GAMG:  Solving for Phi, Initial residual = 2.48269e-05, Final residual = 5.4573e-07, No Iterations 5
GAMG:  Solving for Phi, Initial residual = 5.45697e-07, Final residual = 5.45697e-07, No Iterations 0
Continuity error = 1.10665e-05
Interpolated velocity error = 0.000724862

Writing field Phi (grad(Phi) = U)

Calculating approximate pressure field
GAMG:  Solving for p, Initial residual = 1, Final residual = 0.00418512, No Iterations 2
GAMG:  Solving for p, Initial residual = 0.00384353, Final residual = 2.23181e-05, No Iterations 6
GAMG:  Solving for p, Initial residual = 2.24573e-05, Final residual = 4.90111e-07, No Iterations 5
GAMG:  Solving for p, Initial residual = 4.90079e-07, Final residual = 4.90079e-07, No Iterations 0
ExecutionTime = 0.09 s  ClockTime = 0 s

End

