/*---------------------------------------------------------------------------*\
  =========                 |
  \\      /  F ield         | OpenFOAM: The Open Source CFD Toolbox
   \\    /   O peration     | Website:  https://openfoam.org
    \\  /    A nd           | Version:  6
     \\/     M anipulation  |
\*---------------------------------------------------------------------------*/
Build  : 6-1a0c91b3baa8
Exec   : multicompCompressFluid -writep -writePhi
Date   : Oct 29 2018
Time   : 16:20:49
Host   : "ubuntu"
PID    : 7301
I/O    : uncollated
Case   : /media/psf/HDD/OpenFOAM/twoFuelEngine/quadPiston/case
nProcs : 1
sigFpe : Enabling floating point exception trapping (FOAM_SIGFPE).
fileModificationChecking : Monitoring run-time modified files using timeStampMaster (fileModificationSkew 10)
allowSystemOperations : Allowing user-supplied system call operations

// * * * * * * * * * * * * * * * * * * * * * * * * * * * * * * * * * * * * * //
Create time

Create mesh for time = 0

Reading velocity field U

Constructing pressure field p

Constructing velocity potential field Phi

No MRF models present


Calculating potential flow
GAMG:  Solving for Phi, Initial residual = 1, Final residual = 0.00392233, No Iterations 3
GAMG:  Solving for Phi, Initial residual = 0.00265969, Final residual = 1.47282e-05, No Iterations 6
GAMG:  Solving for Phi, Initial residual = 1.44444e-05, Final residual = 6.72129e-07, No Iterations 4
GAMG:  Solving for Phi, Initial residual = 6.72066e-07, Final residual = 6.72066e-07, No Iterations 0
Continuity error = 2.13549e-07
Interpolated velocity error = 3.12791e-05

Writing field Phi (grad(Phi) = U)

Calculating approximate pressure field
GAMG:  Solving for p, Initial residual = 1, Final residual = 0.00517091, No Iterations 3
GAMG:  Solving for p, Initial residual = 0.00312111, Final residual = 2.56758e-05, No Iterations 6
GAMG:  Solving for p, Initial residual = 2.55915e-05, Final residual = 5.59138e-07, No Iterations 5
GAMG:  Solving for p, Initial residual = 5.59125e-07, Final residual = 5.59125e-07, No Iterations 0
ExecutionTime = 0.1 s  ClockTime = 1 s

End

