/*---------------------------------------------------------------------------*\
  =========                 |
  \\      /  F ield         | OpenFOAM: The Open Source CFD Toolbox
   \\    /   O peration     | Website:  https://openfoam.org
    \\  /    A nd           | Version:  6
     \\/     M anipulation  |
\*---------------------------------------------------------------------------*/
Build  : 6-1a0c91b3baa8
Exec   : surfaceTransformPoints -scale (0.001 0.001 0.001) injectionXMinus.stl injectionXMinus.stl
Date   : Oct 13 2018
Time   : 18:10:37
Host   : "ubuntu"
PID    : 11726
I/O    : uncollated
Case   : /media/psf/HDD/OpenFOAM/twoFuelEngine/cubePiston/geometry
nProcs : 1
sigFpe : Enabling floating point exception trapping (FOAM_SIGFPE).
fileModificationChecking : Monitoring run-time modified files using timeStampMaster (fileModificationSkew 10)
allowSystemOperations : Allowing user-supplied system call operations

// * * * * * * * * * * * * * * * * * * * * * * * * * * * * * * * * * * * * * //
Reading surf from "injectionXMinus.stl" ...
Writing surf to "injectionXMinus.stl" ...
Scaling points by (0.001 0.001 0.001)
End

/*---------------------------------------------------------------------------*\
  =========                 |
  \\      /  F ield         | OpenFOAM: The Open Source CFD Toolbox
   \\    /   O peration     | Website:  https://openfoam.org
    \\  /    A nd           | Version:  6
     \\/     M anipulation  |
\*---------------------------------------------------------------------------*/
Build  : 6-1a0c91b3baa8
Exec   : surfaceTransformPoints -scale (0.001 0.001 0.001) injectionXPlus.stl injectionXPlus.stl
Date   : Oct 13 2018
Time   : 18:10:37
Host   : "ubuntu"
PID    : 11727
I/O    : uncollated
Case   : /media/psf/HDD/OpenFOAM/twoFuelEngine/cubePiston/geometry
nProcs : 1
sigFpe : Enabling floating point exception trapping (FOAM_SIGFPE).
fileModificationChecking : Monitoring run-time modified files using timeStampMaster (fileModificationSkew 10)
allowSystemOperations : Allowing user-supplied system call operations

// * * * * * * * * * * * * * * * * * * * * * * * * * * * * * * * * * * * * * //
Reading surf from "injectionXPlus.stl" ...
Writing surf to "injectionXPlus.stl" ...
Scaling points by (0.001 0.001 0.001)
End

/*---------------------------------------------------------------------------*\
  =========                 |
  \\      /  F ield         | OpenFOAM: The Open Source CFD Toolbox
   \\    /   O peration     | Website:  https://openfoam.org
    \\  /    A nd           | Version:  6
     \\/     M anipulation  |
\*---------------------------------------------------------------------------*/
Build  : 6-1a0c91b3baa8
Exec   : surfaceTransformPoints -scale (0.001 0.001 0.001) injectionYMinus.stl injectionYMinus.stl
Date   : Oct 13 2018
Time   : 18:10:37
Host   : "ubuntu"
PID    : 11728
I/O    : uncollated
Case   : /media/psf/HDD/OpenFOAM/twoFuelEngine/cubePiston/geometry
nProcs : 1
sigFpe : Enabling floating point exception trapping (FOAM_SIGFPE).
fileModificationChecking : Monitoring run-time modified files using timeStampMaster (fileModificationSkew 10)
allowSystemOperations : Allowing user-supplied system call operations

// * * * * * * * * * * * * * * * * * * * * * * * * * * * * * * * * * * * * * //
Reading surf from "injectionYMinus.stl" ...
Writing surf to "injectionYMinus.stl" ...
Scaling points by (0.001 0.001 0.001)
End

/*---------------------------------------------------------------------------*\
  =========                 |
  \\      /  F ield         | OpenFOAM: The Open Source CFD Toolbox
   \\    /   O peration     | Website:  https://openfoam.org
    \\  /    A nd           | Version:  6
     \\/     M anipulation  |
\*---------------------------------------------------------------------------*/
Build  : 6-1a0c91b3baa8
Exec   : surfaceTransformPoints -scale (0.001 0.001 0.001) injectionYPlus.stl injectionYPlus.stl
Date   : Oct 13 2018
Time   : 18:10:37
Host   : "ubuntu"
PID    : 11729
I/O    : uncollated
Case   : /media/psf/HDD/OpenFOAM/twoFuelEngine/cubePiston/geometry
nProcs : 1
sigFpe : Enabling floating point exception trapping (FOAM_SIGFPE).
fileModificationChecking : Monitoring run-time modified files using timeStampMaster (fileModificationSkew 10)
allowSystemOperations : Allowing user-supplied system call operations

// * * * * * * * * * * * * * * * * * * * * * * * * * * * * * * * * * * * * * //
Reading surf from "injectionYPlus.stl" ...
Writing surf to "injectionYPlus.stl" ...
Scaling points by (0.001 0.001 0.001)
End

/*---------------------------------------------------------------------------*\
  =========                 |
  \\      /  F ield         | OpenFOAM: The Open Source CFD Toolbox
   \\    /   O peration     | Website:  https://openfoam.org
    \\  /    A nd           | Version:  6
     \\/     M anipulation  |
\*---------------------------------------------------------------------------*/
Build  : 6-1a0c91b3baa8
Exec   : surfaceTransformPoints -scale (0.001 0.001 0.001) inletXMinus.stl inletXMinus.stl
Date   : Oct 13 2018
Time   : 18:10:37
Host   : "ubuntu"
PID    : 11730
I/O    : uncollated
Case   : /media/psf/HDD/OpenFOAM/twoFuelEngine/cubePiston/geometry
nProcs : 1
sigFpe : Enabling floating point exception trapping (FOAM_SIGFPE).
fileModificationChecking : Monitoring run-time modified files using timeStampMaster (fileModificationSkew 10)
allowSystemOperations : Allowing user-supplied system call operations

// * * * * * * * * * * * * * * * * * * * * * * * * * * * * * * * * * * * * * //
Reading surf from "inletXMinus.stl" ...
Writing surf to "inletXMinus.stl" ...
Scaling points by (0.001 0.001 0.001)
End

/*---------------------------------------------------------------------------*\
  =========                 |
  \\      /  F ield         | OpenFOAM: The Open Source CFD Toolbox
   \\    /   O peration     | Website:  https://openfoam.org
    \\  /    A nd           | Version:  6
     \\/     M anipulation  |
\*---------------------------------------------------------------------------*/
Build  : 6-1a0c91b3baa8
Exec   : surfaceTransformPoints -scale (0.001 0.001 0.001) inletXPlus.stl inletXPlus.stl
Date   : Oct 13 2018
Time   : 18:10:37
Host   : "ubuntu"
PID    : 11731
I/O    : uncollated
Case   : /media/psf/HDD/OpenFOAM/twoFuelEngine/cubePiston/geometry
nProcs : 1
sigFpe : Enabling floating point exception trapping (FOAM_SIGFPE).
fileModificationChecking : Monitoring run-time modified files using timeStampMaster (fileModificationSkew 10)
allowSystemOperations : Allowing user-supplied system call operations

// * * * * * * * * * * * * * * * * * * * * * * * * * * * * * * * * * * * * * //
Reading surf from "inletXPlus.stl" ...
Writing surf to "inletXPlus.stl" ...
Scaling points by (0.001 0.001 0.001)
End

/*---------------------------------------------------------------------------*\
  =========                 |
  \\      /  F ield         | OpenFOAM: The Open Source CFD Toolbox
   \\    /   O peration     | Website:  https://openfoam.org
    \\  /    A nd           | Version:  6
     \\/     M anipulation  |
\*---------------------------------------------------------------------------*/
Build  : 6-1a0c91b3baa8
Exec   : surfaceTransformPoints -scale (0.001 0.001 0.001) inletYMinus.stl inletYMinus.stl
Date   : Oct 13 2018
Time   : 18:10:37
Host   : "ubuntu"
PID    : 11732
I/O    : uncollated
Case   : /media/psf/HDD/OpenFOAM/twoFuelEngine/cubePiston/geometry
nProcs : 1
sigFpe : Enabling floating point exception trapping (FOAM_SIGFPE).
fileModificationChecking : Monitoring run-time modified files using timeStampMaster (fileModificationSkew 10)
allowSystemOperations : Allowing user-supplied system call operations

// * * * * * * * * * * * * * * * * * * * * * * * * * * * * * * * * * * * * * //
Reading surf from "inletYMinus.stl" ...
Writing surf to "inletYMinus.stl" ...
Scaling points by (0.001 0.001 0.001)
End

/*---------------------------------------------------------------------------*\
  =========                 |
  \\      /  F ield         | OpenFOAM: The Open Source CFD Toolbox
   \\    /   O peration     | Website:  https://openfoam.org
    \\  /    A nd           | Version:  6
     \\/     M anipulation  |
\*---------------------------------------------------------------------------*/
Build  : 6-1a0c91b3baa8
Exec   : surfaceTransformPoints -scale (0.001 0.001 0.001) inletYPlus.stl inletYPlus.stl
Date   : Oct 13 2018
Time   : 18:10:37
Host   : "ubuntu"
PID    : 11733
I/O    : uncollated
Case   : /media/psf/HDD/OpenFOAM/twoFuelEngine/cubePiston/geometry
nProcs : 1
sigFpe : Enabling floating point exception trapping (FOAM_SIGFPE).
fileModificationChecking : Monitoring run-time modified files using timeStampMaster (fileModificationSkew 10)
allowSystemOperations : Allowing user-supplied system call operations

// * * * * * * * * * * * * * * * * * * * * * * * * * * * * * * * * * * * * * //
Reading surf from "inletYPlus.stl" ...
Writing surf to "inletYPlus.stl" ...
Scaling points by (0.001 0.001 0.001)
End

/*---------------------------------------------------------------------------*\
  =========                 |
  \\      /  F ield         | OpenFOAM: The Open Source CFD Toolbox
   \\    /   O peration     | Website:  https://openfoam.org
    \\  /    A nd           | Version:  6
     \\/     M anipulation  |
\*---------------------------------------------------------------------------*/
Build  : 6-1a0c91b3baa8
Exec   : surfaceTransformPoints -scale (0.001 0.001 0.001) outlet.stl outlet.stl
Date   : Oct 13 2018
Time   : 18:10:37
Host   : "ubuntu"
PID    : 11734
I/O    : uncollated
Case   : /media/psf/HDD/OpenFOAM/twoFuelEngine/cubePiston/geometry
nProcs : 1
sigFpe : Enabling floating point exception trapping (FOAM_SIGFPE).
fileModificationChecking : Monitoring run-time modified files using timeStampMaster (fileModificationSkew 10)
allowSystemOperations : Allowing user-supplied system call operations

// * * * * * * * * * * * * * * * * * * * * * * * * * * * * * * * * * * * * * //
Reading surf from "outlet.stl" ...
Writing surf to "outlet.stl" ...
Scaling points by (0.001 0.001 0.001)
End

/*---------------------------------------------------------------------------*\
  =========                 |
  \\      /  F ield         | OpenFOAM: The Open Source CFD Toolbox
   \\    /   O peration     | Website:  https://openfoam.org
    \\  /    A nd           | Version:  6
     \\/     M anipulation  |
\*---------------------------------------------------------------------------*/
Build  : 6-1a0c91b3baa8
Exec   : surfaceTransformPoints -scale (0.001 0.001 0.001) valve.stl valve.stl
Date   : Oct 13 2018
Time   : 18:10:37
Host   : "ubuntu"
PID    : 11735
I/O    : uncollated
Case   : /media/psf/HDD/OpenFOAM/twoFuelEngine/cubePiston/geometry
nProcs : 1
sigFpe : Enabling floating point exception trapping (FOAM_SIGFPE).
fileModificationChecking : Monitoring run-time modified files using timeStampMaster (fileModificationSkew 10)
allowSystemOperations : Allowing user-supplied system call operations

// * * * * * * * * * * * * * * * * * * * * * * * * * * * * * * * * * * * * * //
Reading surf from "valve.stl" ...
Writing surf to "valve.stl" ...
Scaling points by (0.001 0.001 0.001)
End

/*---------------------------------------------------------------------------*\
  =========                 |
  \\      /  F ield         | OpenFOAM: The Open Source CFD Toolbox
   \\    /   O peration     | Website:  https://openfoam.org
    \\  /    A nd           | Version:  6
     \\/     M anipulation  |
\*---------------------------------------------------------------------------*/
Build  : 6-1a0c91b3baa8
Exec   : surfaceTransformPoints -translate (0 0 -0.25) valve.stl valve.stl
Date   : Oct 13 2018
Time   : 18:10:37
Host   : "ubuntu"
PID    : 11736
I/O    : uncollated
Case   : /media/psf/HDD/OpenFOAM/twoFuelEngine/cubePiston/geometry
nProcs : 1
sigFpe : Enabling floating point exception trapping (FOAM_SIGFPE).
fileModificationChecking : Monitoring run-time modified files using timeStampMaster (fileModificationSkew 10)
allowSystemOperations : Allowing user-supplied system call operations

// * * * * * * * * * * * * * * * * * * * * * * * * * * * * * * * * * * * * * //
Reading surf from "valve.stl" ...
Writing surf to "valve.stl" ...
Translating points by (0 0 -0.25)
End

/*---------------------------------------------------------------------------*\
  =========                 |
  \\      /  F ield         | OpenFOAM: The Open Source CFD Toolbox
   \\    /   O peration     | Website:  https://openfoam.org
    \\  /    A nd           | Version:  6
     \\/     M anipulation  |
\*---------------------------------------------------------------------------*/
Build  : 6-1a0c91b3baa8
Exec   : surfaceTransformPoints -scale (0.001 0.001 0.001) walls.stl walls.stl
Date   : Oct 13 2018
Time   : 18:10:37
Host   : "ubuntu"
PID    : 11737
I/O    : uncollated
Case   : /media/psf/HDD/OpenFOAM/twoFuelEngine/cubePiston/geometry
nProcs : 1
sigFpe : Enabling floating point exception trapping (FOAM_SIGFPE).
fileModificationChecking : Monitoring run-time modified files using timeStampMaster (fileModificationSkew 10)
allowSystemOperations : Allowing user-supplied system call operations

// * * * * * * * * * * * * * * * * * * * * * * * * * * * * * * * * * * * * * //
Reading surf from "walls.stl" ...
Writing surf to "walls.stl" ...
Scaling points by (0.001 0.001 0.001)
End

