/*---------------------------------------------------------------------------*\
  =========                 |
  \\      /  F ield         | OpenFOAM: The Open Source CFD Toolbox
   \\    /   O peration     | Website:  https://openfoam.org
    \\  /    A nd           | Version:  6
     \\/     M anipulation  |
\*---------------------------------------------------------------------------*/
Build  : 6-1a0c91b3baa8
Exec   : surfaceTransformPoints -scale (0.001 0.001 0.001) injectionXMinus.stl injectionXMinus.stl
Date   : Oct 11 2018
Time   : 01:51:16
Host   : "ubuntu"
PID    : 22243
I/O    : uncollated
Case   : /media/psf/HDD/OpenFOAM/twoFuelEngine/geometry
nProcs : 1
sigFpe : Enabling floating point exception trapping (FOAM_SIGFPE).
fileModificationChecking : Monitoring run-time modified files using timeStampMaster (fileModificationSkew 10)
allowSystemOperations : Allowing user-supplied system call operations

// * * * * * * * * * * * * * * * * * * * * * * * * * * * * * * * * * * * * * //
Reading surf from "injectionXMinus.stl" ...
Writing surf to "injectionXMinus.stl" ...
Scaling points by (0.001 0.001 0.001)
End

/*---------------------------------------------------------------------------*\
  =========                 |
  \\      /  F ield         | OpenFOAM: The Open Source CFD Toolbox
   \\    /   O peration     | Website:  https://openfoam.org
    \\  /    A nd           | Version:  6
     \\/     M anipulation  |
\*---------------------------------------------------------------------------*/
Build  : 6-1a0c91b3baa8
Exec   : surfaceTransformPoints -scale (0.001 0.001 0.001) injectionXPlus.stl injectionXPlus.stl
Date   : Oct 11 2018
Time   : 01:51:16
Host   : "ubuntu"
PID    : 22244
I/O    : uncollated
Case   : /media/psf/HDD/OpenFOAM/twoFuelEngine/geometry
nProcs : 1
sigFpe : Enabling floating point exception trapping (FOAM_SIGFPE).
fileModificationChecking : Monitoring run-time modified files using timeStampMaster (fileModificationSkew 10)
allowSystemOperations : Allowing user-supplied system call operations

// * * * * * * * * * * * * * * * * * * * * * * * * * * * * * * * * * * * * * //
Reading surf from "injectionXPlus.stl" ...
Writing surf to "injectionXPlus.stl" ...
Scaling points by (0.001 0.001 0.001)
End

/*---------------------------------------------------------------------------*\
  =========                 |
  \\      /  F ield         | OpenFOAM: The Open Source CFD Toolbox
   \\    /   O peration     | Website:  https://openfoam.org
    \\  /    A nd           | Version:  6
     \\/     M anipulation  |
\*---------------------------------------------------------------------------*/
Build  : 6-1a0c91b3baa8
Exec   : surfaceTransformPoints -scale (0.001 0.001 0.001) injectionYMinus.stl injectionYMinus.stl
Date   : Oct 11 2018
Time   : 01:51:16
Host   : "ubuntu"
PID    : 22245
I/O    : uncollated
Case   : /media/psf/HDD/OpenFOAM/twoFuelEngine/geometry
nProcs : 1
sigFpe : Enabling floating point exception trapping (FOAM_SIGFPE).
fileModificationChecking : Monitoring run-time modified files using timeStampMaster (fileModificationSkew 10)
allowSystemOperations : Allowing user-supplied system call operations

// * * * * * * * * * * * * * * * * * * * * * * * * * * * * * * * * * * * * * //
Reading surf from "injectionYMinus.stl" ...
Writing surf to "injectionYMinus.stl" ...
Scaling points by (0.001 0.001 0.001)
End

/*---------------------------------------------------------------------------*\
  =========                 |
  \\      /  F ield         | OpenFOAM: The Open Source CFD Toolbox
   \\    /   O peration     | Website:  https://openfoam.org
    \\  /    A nd           | Version:  6
     \\/     M anipulation  |
\*---------------------------------------------------------------------------*/
Build  : 6-1a0c91b3baa8
Exec   : surfaceTransformPoints -scale (0.001 0.001 0.001) injectionYPlus.stl injectionYPlus.stl
Date   : Oct 11 2018
Time   : 01:51:16
Host   : "ubuntu"
PID    : 22246
I/O    : uncollated
Case   : /media/psf/HDD/OpenFOAM/twoFuelEngine/geometry
nProcs : 1
sigFpe : Enabling floating point exception trapping (FOAM_SIGFPE).
fileModificationChecking : Monitoring run-time modified files using timeStampMaster (fileModificationSkew 10)
allowSystemOperations : Allowing user-supplied system call operations

// * * * * * * * * * * * * * * * * * * * * * * * * * * * * * * * * * * * * * //
Reading surf from "injectionYPlus.stl" ...
Writing surf to "injectionYPlus.stl" ...
Scaling points by (0.001 0.001 0.001)
End

/*---------------------------------------------------------------------------*\
  =========                 |
  \\      /  F ield         | OpenFOAM: The Open Source CFD Toolbox
   \\    /   O peration     | Website:  https://openfoam.org
    \\  /    A nd           | Version:  6
     \\/     M anipulation  |
\*---------------------------------------------------------------------------*/
Build  : 6-1a0c91b3baa8
Exec   : surfaceTransformPoints -scale (0.001 0.001 0.001) inletXMinus.stl inletXMinus.stl
Date   : Oct 11 2018
Time   : 01:51:16
Host   : "ubuntu"
PID    : 22247
I/O    : uncollated
Case   : /media/psf/HDD/OpenFOAM/twoFuelEngine/geometry
nProcs : 1
sigFpe : Enabling floating point exception trapping (FOAM_SIGFPE).
fileModificationChecking : Monitoring run-time modified files using timeStampMaster (fileModificationSkew 10)
allowSystemOperations : Allowing user-supplied system call operations

// * * * * * * * * * * * * * * * * * * * * * * * * * * * * * * * * * * * * * //
Reading surf from "inletXMinus.stl" ...
Writing surf to "inletXMinus.stl" ...
Scaling points by (0.001 0.001 0.001)
End

/*---------------------------------------------------------------------------*\
  =========                 |
  \\      /  F ield         | OpenFOAM: The Open Source CFD Toolbox
   \\    /   O peration     | Website:  https://openfoam.org
    \\  /    A nd           | Version:  6
     \\/     M anipulation  |
\*---------------------------------------------------------------------------*/
Build  : 6-1a0c91b3baa8
Exec   : surfaceTransformPoints -scale (0.001 0.001 0.001) inletXPlus.stl inletXPlus.stl
Date   : Oct 11 2018
Time   : 01:51:16
Host   : "ubuntu"
PID    : 22248
I/O    : uncollated
Case   : /media/psf/HDD/OpenFOAM/twoFuelEngine/geometry
nProcs : 1
sigFpe : Enabling floating point exception trapping (FOAM_SIGFPE).
fileModificationChecking : Monitoring run-time modified files using timeStampMaster (fileModificationSkew 10)
allowSystemOperations : Allowing user-supplied system call operations

// * * * * * * * * * * * * * * * * * * * * * * * * * * * * * * * * * * * * * //
Reading surf from "inletXPlus.stl" ...
Writing surf to "inletXPlus.stl" ...
Scaling points by (0.001 0.001 0.001)
End

/*---------------------------------------------------------------------------*\
  =========                 |
  \\      /  F ield         | OpenFOAM: The Open Source CFD Toolbox
   \\    /   O peration     | Website:  https://openfoam.org
    \\  /    A nd           | Version:  6
     \\/     M anipulation  |
\*---------------------------------------------------------------------------*/
Build  : 6-1a0c91b3baa8
Exec   : surfaceTransformPoints -scale (0.001 0.001 0.001) inletYMinus.stl inletYMinus.stl
Date   : Oct 11 2018
Time   : 01:51:16
Host   : "ubuntu"
PID    : 22249
I/O    : uncollated
Case   : /media/psf/HDD/OpenFOAM/twoFuelEngine/geometry
nProcs : 1
sigFpe : Enabling floating point exception trapping (FOAM_SIGFPE).
fileModificationChecking : Monitoring run-time modified files using timeStampMaster (fileModificationSkew 10)
allowSystemOperations : Allowing user-supplied system call operations

// * * * * * * * * * * * * * * * * * * * * * * * * * * * * * * * * * * * * * //
Reading surf from "inletYMinus.stl" ...
Writing surf to "inletYMinus.stl" ...
Scaling points by (0.001 0.001 0.001)
End

/*---------------------------------------------------------------------------*\
  =========                 |
  \\      /  F ield         | OpenFOAM: The Open Source CFD Toolbox
   \\    /   O peration     | Website:  https://openfoam.org
    \\  /    A nd           | Version:  6
     \\/     M anipulation  |
\*---------------------------------------------------------------------------*/
Build  : 6-1a0c91b3baa8
Exec   : surfaceTransformPoints -scale (0.001 0.001 0.001) inletYPlus.stl inletYPlus.stl
Date   : Oct 11 2018
Time   : 01:51:16
Host   : "ubuntu"
PID    : 22250
I/O    : uncollated
Case   : /media/psf/HDD/OpenFOAM/twoFuelEngine/geometry
nProcs : 1
sigFpe : Enabling floating point exception trapping (FOAM_SIGFPE).
fileModificationChecking : Monitoring run-time modified files using timeStampMaster (fileModificationSkew 10)
allowSystemOperations : Allowing user-supplied system call operations

// * * * * * * * * * * * * * * * * * * * * * * * * * * * * * * * * * * * * * //
Reading surf from "inletYPlus.stl" ...
Writing surf to "inletYPlus.stl" ...
Scaling points by (0.001 0.001 0.001)
End

/*---------------------------------------------------------------------------*\
  =========                 |
  \\      /  F ield         | OpenFOAM: The Open Source CFD Toolbox
   \\    /   O peration     | Website:  https://openfoam.org
    \\  /    A nd           | Version:  6
     \\/     M anipulation  |
\*---------------------------------------------------------------------------*/
Build  : 6-1a0c91b3baa8
Exec   : surfaceTransformPoints -scale (0.001 0.001 0.001) outlet.stl outlet.stl
Date   : Oct 11 2018
Time   : 01:51:16
Host   : "ubuntu"
PID    : 22251
I/O    : uncollated
Case   : /media/psf/HDD/OpenFOAM/twoFuelEngine/geometry
nProcs : 1
sigFpe : Enabling floating point exception trapping (FOAM_SIGFPE).
fileModificationChecking : Monitoring run-time modified files using timeStampMaster (fileModificationSkew 10)
allowSystemOperations : Allowing user-supplied system call operations

// * * * * * * * * * * * * * * * * * * * * * * * * * * * * * * * * * * * * * //
Reading surf from "outlet.stl" ...
Writing surf to "outlet.stl" ...
Scaling points by (0.001 0.001 0.001)
End

/*---------------------------------------------------------------------------*\
  =========                 |
  \\      /  F ield         | OpenFOAM: The Open Source CFD Toolbox
   \\    /   O peration     | Website:  https://openfoam.org
    \\  /    A nd           | Version:  6
     \\/     M anipulation  |
\*---------------------------------------------------------------------------*/
Build  : 6-1a0c91b3baa8
Exec   : surfaceTransformPoints -scale (0.001 0.001 0.001) valve.stl valve.stl
Date   : Oct 11 2018
Time   : 01:51:16
Host   : "ubuntu"
PID    : 22252
I/O    : uncollated
Case   : /media/psf/HDD/OpenFOAM/twoFuelEngine/geometry
nProcs : 1
sigFpe : Enabling floating point exception trapping (FOAM_SIGFPE).
fileModificationChecking : Monitoring run-time modified files using timeStampMaster (fileModificationSkew 10)
allowSystemOperations : Allowing user-supplied system call operations

// * * * * * * * * * * * * * * * * * * * * * * * * * * * * * * * * * * * * * //
Reading surf from "valve.stl" ...
Writing surf to "valve.stl" ...
Scaling points by (0.001 0.001 0.001)
End

/*---------------------------------------------------------------------------*\
  =========                 |
  \\      /  F ield         | OpenFOAM: The Open Source CFD Toolbox
   \\    /   O peration     | Website:  https://openfoam.org
    \\  /    A nd           | Version:  6
     \\/     M anipulation  |
\*---------------------------------------------------------------------------*/
Build  : 6-1a0c91b3baa8
Exec   : surfaceTransformPoints -translate (0 0 -0.25) valve.stl valve.stl
Date   : Oct 11 2018
Time   : 01:51:16
Host   : "ubuntu"
PID    : 22253
I/O    : uncollated
Case   : /media/psf/HDD/OpenFOAM/twoFuelEngine/geometry
nProcs : 1
sigFpe : Enabling floating point exception trapping (FOAM_SIGFPE).
fileModificationChecking : Monitoring run-time modified files using timeStampMaster (fileModificationSkew 10)
allowSystemOperations : Allowing user-supplied system call operations

// * * * * * * * * * * * * * * * * * * * * * * * * * * * * * * * * * * * * * //
Reading surf from "valve.stl" ...
Writing surf to "valve.stl" ...
Translating points by (0 0 -0.25)
End

/*---------------------------------------------------------------------------*\
  =========                 |
  \\      /  F ield         | OpenFOAM: The Open Source CFD Toolbox
   \\    /   O peration     | Website:  https://openfoam.org
    \\  /    A nd           | Version:  6
     \\/     M anipulation  |
\*---------------------------------------------------------------------------*/
Build  : 6-1a0c91b3baa8
Exec   : surfaceTransformPoints -scale (0.001 0.001 0.001) walls.stl walls.stl
Date   : Oct 11 2018
Time   : 01:51:16
Host   : "ubuntu"
PID    : 22254
I/O    : uncollated
Case   : /media/psf/HDD/OpenFOAM/twoFuelEngine/geometry
nProcs : 1
sigFpe : Enabling floating point exception trapping (FOAM_SIGFPE).
fileModificationChecking : Monitoring run-time modified files using timeStampMaster (fileModificationSkew 10)
allowSystemOperations : Allowing user-supplied system call operations

// * * * * * * * * * * * * * * * * * * * * * * * * * * * * * * * * * * * * * //
Reading surf from "walls.stl" ...
Writing surf to "walls.stl" ...
Scaling points by (0.001 0.001 0.001)
End

