/*---------------------------------------------------------------------------*\
  =========                 |
  \\      /  F ield         | OpenFOAM: The Open Source CFD Toolbox
   \\    /   O peration     | Website:  https://openfoam.org
    \\  /    A nd           | Version:  6
     \\/     M anipulation  |
\*---------------------------------------------------------------------------*/
Build  : 6-1a0c91b3baa8
Exec   : potentialFoam -writePhi -writep
Date   : Oct 29 2018
Time   : 15:21:08
Host   : "ubuntu"
PID    : 23788
I/O    : uncollated
Case   : /media/psf/HDD/OpenFOAM/twoFuelEngine/quadPiston/caseOrig
nProcs : 1
sigFpe : Enabling floating point exception trapping (FOAM_SIGFPE).
fileModificationChecking : Monitoring run-time modified files using timeStampMaster (fileModificationSkew 10)
allowSystemOperations : Allowing user-supplied system call operations

// * * * * * * * * * * * * * * * * * * * * * * * * * * * * * * * * * * * * * //
Create time

Create mesh for time = 0

Reading velocity field U

Constructing pressure field p

Constructing velocity potential field Phi

No MRF models present


Calculating potential flow
GAMG:  Solving for Phi, Initial residual = 1, Final residual = 0.00875248, No Iterations 8
GAMG:  Solving for Phi, Initial residual = 0.000122335, Final residual = 8.04666e-07, No Iterations 7
GAMG:  Solving for Phi, Initial residual = 8.02629e-07, Final residual = 8.02629e-07, No Iterations 0
GAMG:  Solving for Phi, Initial residual = 8.02629e-07, Final residual = 8.02629e-07, No Iterations 0
Continuity error = 1.2164e-05
Interpolated velocity error = 0.000561937

Calculating approximate pressure field
GAMG:  Solving for p, Initial residual = 1, Final residual = 0.00820142, No Iterations 6
GAMG:  Solving for p, Initial residual = 0.000445556, Final residual = 2.94527e-06, No Iterations 7
GAMG:  Solving for p, Initial residual = 2.91637e-06, Final residual = 6.92957e-07, No Iterations 2
GAMG:  Solving for p, Initial residual = 6.92923e-07, Final residual = 6.92923e-07, No Iterations 0
ExecutionTime = 0.1 s  ClockTime = 0 s

End

